
#======================================================================
# CRYSTAL DATA
#----------------------------------------------------------------------
data_VESTA_phase_1

_chemical_name_common                  'Er1 Fe1 O1'
_cell_length_a                         5.263(3)
_cell_length_b                         5.582(3)
_cell_length_c                         7.591(3)
_cell_angle_alpha                      90.000000
_cell_angle_beta                       90.000000
_cell_angle_gamma                      90.000000
_cell_volume                           223.008893
_space_group_name_H-M_alt              'P b n m'
_space_group_IT_number                 62

loop_
_space_group_symop_operation_xyz
   'x, y, z'
   '-x, -y, -z'
   'x+1/2, -y+1/2, -z'
   '-x+1/2, y+1/2, z'
   '-x, -y, z+1/2'
   'x, y, -z+1/2'
   '-x+1/2, y+1/2, -z+1/2'
   'x+1/2, -y+1/2, z+1/2'

loop_
   _atom_site_label
   _atom_site_occupancy
   _atom_site_fract_x
   _atom_site_fract_y
   _atom_site_fract_z
   _atom_site_adp_type
   _atom_site_U_iso_or_equiv
   _atom_site_type_symbol
   Er1        1.0     0.9799(2)    0.06940(11)  0.250000    Uani  0.007233 Er
   Fe1        1.0     0.000000     0.500000     0.000000    Uani  0.007300 Fe
   O1         1.0     0.1120(4)    0.45965(11)  0.250000    Uani  0.009233 O
   O2         1.0     0.6919(2)    0.30659(9)   0.05751(5)  Uani  0.010033 O

loop_
   _atom_site_aniso_label
   _atom_site_aniso_U_11
   _atom_site_aniso_U_22
   _atom_site_aniso_U_33
   _atom_site_aniso_U_12
   _atom_site_aniso_U_13
   _atom_site_aniso_U_23
   Er1	 0.00770  0.00670  0.00730 -0.00200  0.00000  0.00000
   Fe1	 0.00910  0.00620  0.00660 -0.00053  0.00130  0.00010
   O1	 0.01260  0.00710  0.00800 -0.00060  0.00000  0.00000
   O2	 0.01310  0.00750  0.00950 -0.00110  0.00060 -0.00091

